FoamFile
{
    format      ascii;
    class       dictionary;
    object      transportProperties;
}
transportModel  Newtonian;
nu              [0 2 -1 0 0 0 0] __NU__;
rho             [1 -3 0 0 0 0 0] __RHO__;
Cp              [0 2 -2 -1 0 0 0] __CP__;
k               [1 1 -3 -1 0 0 0] __K__;
Pr              [0 0 0 0 0 0 0] __PR__;
Prt             [0 0 0 0 0 0 0] 0.85;
