FoamFile
{
    format      ascii;
    class       dictionary;
    object      g;
}
dimensions      [0 1 -2 0 0 0 0];
value           (0 0 0);
